@<TRIPOS>MOLECULE
lig.pdb
   47    50     1     0     0
SMALL
bcc


@<TRIPOS>ATOM
      1 N1          96.3380    53.3720     6.9350 ns         1 ZI8      -0.558900
      2 C1          97.3760    58.7690    13.5350 c5         1 ZI8       0.132100
      3 C2          97.2010    58.3810    12.0720 c5         1 ZI8       0.153800
      4 C3          96.9420    56.4440     9.8500 ca         1 ZI8      -0.205000
      5 O1          96.4280    58.0790    14.3540 oh         1 ZI8      -0.587800
      6 C4          97.4430    54.2710     8.9100 ca         1 ZI8      -0.200600
      7 C5          98.9080    56.9830    13.0760 c5         1 ZI8       0.188800
      8 C6          98.7690    58.2800    13.8660 c5         1 ZI8      -0.128400
      9 C7          97.8150    56.2050    10.9200 ca         1 ZI8       0.192600
     10 C8          98.5190    54.9960    10.9510 ca         1 ZI8      -0.205000
     11 C9          98.3350    54.0460     9.9590 ca         1 ZI8      -0.049500
     12 Cl1         91.8530    48.4730     7.9410 cl         1 ZI8      -0.092400
     13 C10         93.1070    49.5470     7.3990 ca         1 ZI8       0.020400
     14 C11         93.6720    49.3490     6.1610 ca         1 ZI8      -0.124500
     15 C12         94.6060    50.2580     5.6950 ca         1 ZI8      -0.111500
     16 C13         93.4760    50.6120     8.1940 ca         1 ZI8      -0.124500
     17 C14         94.4240    51.5070     7.7240 ca         1 ZI8      -0.111500
     18 C15         94.9990    51.3500     6.4650 ca         1 ZI8      -0.096300
     19 C16         96.0020    52.3720     5.9160 cy         1 ZI8       0.105700
     20 C17         95.6300    52.9820     4.5500 cy         1 ZI8       0.122900
     21 O2          96.5840    52.1260     3.8710 oq         1 ZI8      -0.426600
     22 C18         97.1930    51.7730     5.1390 cy         1 ZI8       0.122900
     23 C19         97.2010    53.1450     7.9520 c          1 ZI8       0.683700
     24 O3          97.7530    52.0560     8.1070 o          1 ZI8      -0.598100
     25 C20         96.7670    55.4910     8.8560 ca         1 ZI8      -0.049500
     26 N2          97.9590    57.1380    11.9660 nh         1 ZI8      -0.650000
     27 H1          95.9120    54.2580     6.8760 hn         1 ZI8       0.311500
     28 H2          97.2350    59.8160    13.7020 h1         1 ZI8       0.093700
     29 H3          96.1690    58.2230    11.8370 h1         1 ZI8       0.058700
     30 H4          97.5360    59.1370    11.3930 h1         1 ZI8       0.058700
     31 H5          96.4250    57.3360     9.8010 ha         1 ZI8       0.139500
     32 H6          96.5280    57.1220    14.2280 ho         1 ZI8       0.401000
     33 H7          99.9060    56.8670    12.7090 h1         1 ZI8       0.050200
     34 H8          98.7080    56.1160    13.6700 h1         1 ZI8       0.050200
     35 H9          99.5050    58.9930    13.5570 hc         1 ZI8       0.065700
     36 H10         98.9140    58.1380    14.9160 hc         1 ZI8       0.065700
     37 H11         99.1820    54.8100    11.7200 ha         1 ZI8       0.139500
     38 H12         98.8640    53.1610     9.9970 ha         1 ZI8       0.145000
     39 H13         93.4030    48.5340     5.5870 ha         1 ZI8       0.149000
     40 H14         95.0190    50.1240     4.7590 ha         1 ZI8       0.144000
     41 H15         93.0520    50.7410     9.1260 ha         1 ZI8       0.149000
     42 H16         94.7090    52.3030     8.3160 ha         1 ZI8       0.144000
     43 H17         94.6140    52.8100     4.2620 h1         1 ZI8       0.071200
     44 H18         95.6770    54.0420     4.4120 h1         1 ZI8       0.071200
     45 H19         98.1230    52.2690     5.3240 h1         1 ZI8       0.071200
     46 H20         97.4910    50.7620     5.3210 h1         1 ZI8       0.071200
     47 H21         96.1300    55.6870     8.0680 ha         1 ZI8       0.145000
@<TRIPOS>BOND
     1     1    19 1   
     2     1    23 1   
     3     1    27 1   
     4     2     3 1   
     5     2     8 1   
     6     2     5 1   
     7     2    28 1   
     8     3    26 1   
     9     3    29 1   
    10     3    30 1   
    11     4    25 ar  
    12     4     9 ar  
    13     4    31 1   
    14     5    32 1   
    15     6    23 1   
    16     6    25 ar  
    17     6    11 ar  
    18     7    26 1   
    19     7     8 1   
    20     7    33 1   
    21     7    34 1   
    22     8    35 1   
    23     8    36 1   
    24     9    10 ar  
    25     9    26 1   
    26    10    11 ar  
    27    10    37 1   
    28    11    38 1   
    29    12    13 1   
    30    13    14 ar  
    31    13    16 ar  
    32    14    15 ar  
    33    14    39 1   
    34    15    18 ar  
    35    15    40 1   
    36    16    17 ar  
    37    16    41 1   
    38    17    18 ar  
    39    17    42 1   
    40    18    19 1   
    41    19    20 1   
    42    19    22 1   
    43    20    21 1   
    44    20    43 1   
    45    20    44 1   
    46    21    22 1   
    47    22    45 1   
    48    22    46 1   
    49    23    24 2   
    50    25    47 1   
@<TRIPOS>SUBSTRUCTURE
     1 ZI8         1 TEMP              0 ****  ****    0 ROOT
