@<TRIPOS>MOLECULE
MOL
   50    53     1     0     0
SMALL
bcc


@<TRIPOS>ATOM
      1 C1          96.8130    53.6870     6.5950 ca         1 MOL      -0.046500
      2 C2          98.3880    52.1590     7.6060 ca         1 MOL      -0.046500
      3 C3          96.9210    54.5300     7.7010 ca         1 MOL      -0.203500
      4 C4          98.4960    53.0020     8.7120 ca         1 MOL      -0.203500
      5 C5          97.5460    52.5010     6.5480 ca         1 MOL      -0.200600
      6 C6          97.7630    54.1880     8.7590 ca         1 MOL       0.193600
      7 C7          93.4980    49.9130     7.1960 cc         1 MOL      -0.176900
      8 C8          94.0150    50.9530     7.9320 cd         1 MOL       0.366300
      9 C9          95.1850    50.8770     6.1550 cc         1 MOL       0.495400
     10 C10         97.4330    51.6220     5.3950 c          1 MOL       0.701700
     11 C11         97.8220    56.9520    11.1880 c5         1 MOL      -0.128400
     12 C12         97.1460    56.2820     9.9970 c5         1 MOL       0.196800
     13 C13         98.6940    54.7330    11.0240 c5         1 MOL       0.192800
     14 C14         96.2310    51.7850     2.6610 cy         1 MOL       0.099900
     15 C15         94.3700    51.1680     3.2920 cy         1 MOL       0.099900
     16 C16         95.7850    50.7600     3.7040 cy         1 MOL       0.050700
     17 C17         98.2520    55.7750    12.0510 c5         1 MOL       0.131100
     18 C18         92.7610    47.8540     8.4230 c3         1 MOL      -0.101100
     19 C19         92.3950    48.9680     7.4340 c3         1 MOL      -0.012100
     20 N1          95.0650    51.5490     7.2790 nd         1 MOL      -0.634000
     21 N2          94.2580    49.8770     6.0600 na         1 MOL      -0.297900
     22 N3          97.8700    55.0210     9.8520 nh         1 MOL      -0.647000
     23 N4          96.1450    51.0910     5.0910 n          1 MOL      -0.450300
     24 O1          98.4350    51.3410     4.7230 o          1 MOL      -0.572100
     25 O2          94.8760    51.9400     2.1750 oq         1 MOL      -0.417600
     26 O3          99.3190    56.1260    12.9090 oh         1 MOL      -0.589800
     27 Cl1         93.4750    51.4860     9.4580 cl         1 MOL      -0.116000
     28 H1          96.1540    53.9630     5.7760 ha         1 MOL       0.148500
     29 H2          98.9640    51.2380     7.5800 ha         1 MOL       0.148500
     30 H3          96.3450    55.4520     7.7280 ha         1 MOL       0.140500
     31 H4          99.1550    52.7260     9.5310 ha         1 MOL       0.140500
     32 H5          98.6620    57.5760    10.8700 hc         1 MOL       0.061200
     33 H6          97.0970    57.5710    11.7280 hc         1 MOL       0.061200
     34 H7          96.0790    56.1210    10.1820 h1         1 MOL       0.051200
     35 H8          97.2630    56.8870     9.0910 h1         1 MOL       0.051200
     36 H9          99.7620    54.8150    10.7930 h1         1 MOL       0.063700
     37 H10         98.4720    53.7180    11.3760 h1         1 MOL       0.063700
     38 H11         96.6230    52.7330     3.0420 h1         1 MOL       0.066200
     39 H12         96.8970    51.3970     1.8850 h1         1 MOL       0.066200
     40 H13         93.7290    50.3470     2.9580 h1         1 MOL       0.066200
     41 H14         93.8200    51.8040     3.9920 h1         1 MOL       0.066200
     42 H15         96.0400    49.7270     3.4480 h1         1 MOL       0.109700
     43 H16         97.4140    55.4040    12.6740 h1         1 MOL       0.043700
     44 H17         93.6490    47.3110     8.0820 hc         1 MOL       0.040367
     45 H18         91.9440    47.1340     8.5330 hc         1 MOL       0.040367
     46 H19         92.9800    48.2720     9.4110 hc         1 MOL       0.040367
     47 H20         91.4940    49.4890     7.8170 hc         1 MOL       0.066700
     48 H21         92.0580    48.4950     6.4890 hc         1 MOL       0.066700
     49 H22         94.1560    49.2310     5.2890 hn         1 MOL       0.309700
     50 H23         98.9990    56.8490    13.4710 ho         1 MOL       0.405000
@<TRIPOS>BOND
     1     1     3 ar  
     2     1     5 ar  
     3     2     4 ar  
     4     2     5 ar  
     5     3     6 ar  
     6     4     6 ar  
     7     5    10 1   
     8     6    22 1   
     9     7     8 2   
    10     7    19 1   
    11     7    21 1   
    12     8    20 1   
    13     8    27 1   
    14     9    20 2   
    15     9    21 1   
    16     9    23 1   
    17    10    23 1   
    18    10    24 2   
    19    11    12 1   
    20    11    17 1   
    21    12    22 1   
    22    13    17 1   
    23    13    22 1   
    24    14    16 1   
    25    14    25 1   
    26    15    16 1   
    27    15    25 1   
    28    16    23 1   
    29    17    26 1   
    30    18    19 1   
    31     1    28 1   
    32     2    29 1   
    33     3    30 1   
    34     4    31 1   
    35    11    32 1   
    36    11    33 1   
    37    12    34 1   
    38    12    35 1   
    39    13    36 1   
    40    13    37 1   
    41    14    38 1   
    42    14    39 1   
    43    15    40 1   
    44    15    41 1   
    45    16    42 1   
    46    17    43 1   
    47    18    44 1   
    48    18    45 1   
    49    18    46 1   
    50    19    47 1   
    51    19    48 1   
    52    21    49 1   
    53    26    50 1   
@<TRIPOS>SUBSTRUCTURE
     1 MOL         1 TEMP              0 ****  ****    0 ROOT
